%nprocshared=48
%mem=40GB 
%chk=methben.chk
#p opt b3lyp/6-31g(d) scrf=(solvent=water,pcm) empiricaldispersion=gd3

Title Card Required

0 1
 C                 -0.23129640    2.64420331    0.00000000
 C                  1.16386360    2.64420331    0.00000000
 C                  1.86140160    3.85195431    0.00000000
 C                  1.16374760    5.06046331   -0.00119900
 C                 -0.23107740    5.06038531   -0.00167800
 C                 -0.92867840    3.85217931   -0.00068200
 H                 -0.78105540    1.69188631    0.00045000
 H                  1.71337160    1.69169031    0.00131500
 H                  1.71394760    6.01260631   -0.00125800
 H                 -0.78119940    6.01266631   -0.00263100
 H                 -2.02828240    3.85236231   -0.00086200
 C                  3.40140134    3.85206634    0.00088786
 H                  3.75864829    3.86448212   -1.00763605
 H                  3.75770756    4.71948278    0.51618835
 H                  3.75784754    2.97231192    0.49472818

 1 2 1.5 6 1.5 7 1.0
 2 3 1.5 8 1.0
 3 4 1.5 12 1.0
 4 5 1.5 9 1.0
 5 6 1.5 10 1.0
 6 11 1.0
 7
 8
 9
 10
 11
 12 13 1.0 14 1.0 15 1.0
 13
 14
 15

