%nprocshared=48
%mem=40GB 
%chk=resin3.chk
#p opt b3lyp/6-31g(d) scrf=(solvent=water,pcm) empiricaldispersion=gd3

Title Card Required

0 1
 C                 -5.60562936    2.90343714    0.22313407
 C                 -4.20759717    2.91797982    0.12678010
 C                 -3.52174165    4.13902485    0.08222304
 C                 -4.23339276    5.34680862    0.13426804
 C                 -5.63156750    5.33130380    0.22765252
 C                 -6.31747782    4.10982974    0.27280025
 H                 -6.12971280    1.97124416    0.25852884
 H                 -3.66420774    1.99708642    0.08698974
 C                 -2.12518528    4.15777822   -0.02533098
 C                 -3.54656675    6.57005905    0.09003473
 H                 -6.17550023    6.25198855    0.26475764
 C                 -2.14563953    6.58367938    0.04576473
 C                 -1.44214324    5.37535053    0.01166760
 H                 -4.09138356    7.49094717    0.09633514
 C                 -1.37905669    7.92514290    0.04550911
 H                 -1.16905355    8.22567996   -0.95971533
 H                 -1.97824067    8.67238043    0.52249404
 C                 -0.06437370    7.75607661    0.83402661
 H                  0.45403886    8.69106434    0.87814425
 H                 -0.30689903    7.43094392    1.82416306
 C                  0.85251507    6.70837556    0.16643160
 H                  1.70860138    6.55608739    0.78998957
 H                  1.16840131    7.05323721   -0.79595414
 C                  0.08600019    5.38944039   -0.00871525
 H                 -0.04897309    5.62054265   -1.04470461
 C                  0.84387609    4.09493862   -0.33626776
 H                  1.15257720    3.63173757    0.57754207
 H                  1.70419888    4.31878941   -0.93178058
 C                 -1.33913683    2.84342102   -0.21862819
 H                 -1.04243460    2.44924647    0.73084230
 H                 -1.96339188    2.13307194   -0.71923763
 C                 -0.08514785    3.12634189   -1.08704420
 H                 -0.38908585    3.55891132   -2.01731587
 C                  0.66927442    1.81092074   -1.35558516
 H                  0.04657540    1.15232559   -1.92426639
 H                  1.56392628    2.01853944   -1.90457744
 H                  0.92149789    1.34793613   -0.42449517
 C                 -7.85385729    4.09322953    0.37702384
 H                 -8.27372299    4.61143289   -0.45968284
 H                 -8.20022807    3.08084681    0.37994286
 C                 -8.28742848    4.78787803    1.68127822
 H                 -8.19153596    5.84772705    1.56981213
 H                 -7.66510630    4.45612149    2.48598481
 C                 -9.75469162    4.43461742    1.98778405
 H                -10.36381969    4.67574261    1.14178072
 H                 -9.83335523    3.38828349    2.19730099
 C                -10.23204833    5.24025543    3.21035427
 H                 -9.61752155    5.00552720    4.05424970
 C                -10.13042023    6.74611787    2.90433133
 H                 -9.16242727    7.10316673    3.18789039
 H                -10.27753966    6.90794276    1.85692091
 H                -10.88068209    7.27352473    3.45555646
 C                -11.69549199    4.87786379    3.52436851
 H                -11.77054537    3.82692803    3.71091881
 H                -12.01880479    5.41770870    4.38977957
 H                -12.31393366    5.13716318    2.69058572

 1 2 1.5 6 1.5 7 1.0
 2 3 1.5 8 1.0
 3 4 1.5 9 1.5
 4 5 1.5 10 1.5
 5 6 1.5 11 1.0
 6 38 1.0
 7
 8
 9 13 1.5 29 1.0
 10 12 1.5 14 1.0
 11
 12 13 1.5 15 1.0
 13 24 1.0
 14
 15 16 1.0 17 1.0 18 1.0
 16
 17
 18 19 1.0 20 1.0 21 1.0
 19
 20
 21 22 1.0 23 1.0 24 1.0
 22
 23
 24 25 1.0 26 1.0
 25
 26 27 1.0 28 1.0 32 1.0
 27
 28
 29 30 1.0 31 1.0 32 1.0
 30
 31
 32 33 1.0 34 1.0
 33
 34 35 1.0 36 1.0 37 1.0
 35
 36
 37
 38 39 1.0 40 1.0 41 1.0
 39
 40
 41 42 1.0 43 1.0 44 1.0
 42
 43
 44 45 1.0 46 1.0 47 1.0
 45
 46
 47 48 1.0 49 1.0 53 1.0
 48
 49 50 1.0 51 1.0 52 1.0
 50
 51
 52
 53 54 1.0 55 1.0 56 1.0
 54
 55
 56

