%nprocshared=48
%mem=40GB 
%chk=bitail.chk
#p b3lyp/6-31g(d)

Required

-2 1
 C                    0.80500000   -3.63200000   -1.54700000
 O                    0.83800000   -3.00900000   -2.60100000
 N                    1.96700000   -4.16700000   -1.02400000
 C                    1.92000000   -4.92600000    0.23700000
 H                    1.48800000   -4.27000000    1.02200000
 H                    1.26800000   -5.81500000    0.09300000
 C                    3.26200000   -5.41400000    0.80400000
 H                    3.93900000   -4.55700000    1.00600000
 H                    3.70700000   -6.12900000    0.07700000
 C                    3.24000000   -3.67500000   -1.56900000
 H                    4.11400000   -4.23600000   -1.19600000
 H                    3.27600000   -3.75000000   -2.67900000
 C                    3.33700000   -2.22100000   -1.06900000
 H                    3.15300000   -2.24900000    0.03000000
 H                    2.51800000   -1.63300000   -1.53400000
 C                    4.64000000   -1.45300000   -1.25800000
 H                    5.43300000   -1.99500000   -0.71100000
 H                    4.91400000   -1.39500000   -2.33300000
 C                    4.36700000   -0.02700000   -0.70200000
 H                    3.92500000   -0.08800000    0.31800000
 H                    3.61200000    0.38200000   -1.40900000
 S                    2.96200000   -6.29400000    2.37200000
 H                    4.31500000   -6.67800000    2.44700000
 H                    2.70000000   -6.95600000    3.58600000
 H                    2.57000000   -5.08800000    2.98800000
 C                   -0.47600000   -3.55500000   -0.75100000
 H                   -0.50400000   -2.48000000   -0.46400000
 H                   -0.47500000   -4.13300000    0.19000000
 C                   -1.77900000   -3.85600000   -1.49400000
 H                   -1.80400000   -3.31400000   -2.46500000
 H                   -1.87900000   -4.94700000   -1.68000000
 C                   -2.91100000   -3.31200000   -0.60900000
 H                   -2.73500000   -2.21900000   -0.47300000
 H                   -2.87300000   -3.80000000    0.39100000
 C                   -4.31100000   -3.48100000   -1.18500000
 H                   -4.36100000   -3.03500000   -2.20200000
 H                   -4.55700000   -4.56300000   -1.24500000
 C                   -5.29600000   -2.74600000   -0.26500000
 H                   -5.03300000   -1.66300000   -0.24600000
 H                   -5.20600000   -3.14800000    0.76900000
 C                   -6.74200000   -2.89800000   -0.72400000
 H                   -6.85300000   -2.51100000   -1.76100000
 H                   -7.00900000   -3.97700000   -0.70800000
 C                   -7.67200000   -2.12000000    0.21500000
 H                   -7.41900000   -1.03600000    0.17200000
 H                   -7.52300000   -2.47800000    1.25800000
 C                   -9.13600000   -2.32400000   -0.17200000
 H                   -9.30000000   -1.97200000   -1.21400000
 H                   -9.37100000   -3.41000000   -0.11800000
 C                  -10.06400000   -1.56200000    0.78000000
 H                   -9.87900000   -1.90100000    1.82300000
 H                   -9.84700000   -0.47300000    0.71500000
 C                  -11.53200000   -1.81800000    0.42400000
 H                  -11.72900000   -1.48200000   -0.61700000
 H                  -11.74500000   -2.90700000    0.49400000
 C                  -12.46600000   -1.07400000    1.37200000
 H                  -13.52000000   -1.28600000    1.09500000
 H                  -12.29900000   -1.40800000    2.41900000
 H                  -12.29200000    0.02100000    1.30500000
 N                    5.48500000    0.91200000   -0.63900000
 C                    6.86300000    0.43100000   -0.74700000
 H                    6.97600000   -0.23000000   -1.63200000
 H                    7.58100000    1.26500000   -0.89500000
 C                    7.26000000   -0.26000000    0.56400000
 H                    7.17400000    0.46700000    1.40200000
 H                    6.58500000   -1.08200000    0.87300000
 S                    8.97300000   -0.88400000    0.49700000
 C                    5.23300000    2.24800000   -0.38000000
 O                    6.15900000    3.04600000   -0.32800000
 C                    3.83100000    2.80200000   -0.12600000
 H                    3.60300000    3.55100000   -0.91200000
 H                    3.04100000    2.03100000   -0.16500000
 C                    3.75000000    3.45400000    1.26400000
 H                    4.44200000    4.32300000    1.30700000
 H                    4.07700000    2.71100000    2.02500000
 C                    2.32900000    3.90300000    1.65700000
 H                    2.38600000    4.34400000    2.67600000
 H                    1.66400000    3.01200000    1.70300000
 C                    1.71900000    4.93500000    0.69900000
 H                    2.39200000    5.81700000    0.62200000
 H                    1.60300000    4.47800000   -0.30700000
 C                    0.33900000    5.39500000    1.18900000
 H                    0.44600000    5.88900000    2.18000000
 H                   -0.32900000    4.51100000    1.30100000
 C                   -0.29500000    6.37100000    0.19100000
 H                    0.37400000    7.25000000    0.05700000
 H                   -0.41000000    5.85600000   -0.78900000
 C                   -1.67000000    6.85400000    0.66900000
 H                   -1.55500000    7.39300000    1.63600000
 H                   -2.33700000    5.97800000    0.82500000
 C                   -2.30300000    7.78900000   -0.36900000
 H                   -1.63200000    8.66000000   -0.53800000
 H                   -2.42000000    7.23700000   -1.32800000
 C                   -3.67600000    8.29300000    0.09100000
 H                   -3.55900000    8.85800000    1.04200000
 H                   -4.34700000    7.42400000    0.27000000
 C                   -4.30200000    9.20500000   -0.97200000
 H                   -3.63600000   10.07400000   -1.16000000
 H                   -4.42700000    8.63900000   -1.92100000
 C                   -5.66700000    9.72000000   -0.52600000
 H                   -5.56900000   10.31300000    0.40900000
 H                   -6.09400000   10.37200000   -1.31700000
 H                   -6.36300000    8.87200000   -0.35000000
 H                    8.52600000   -2.22000000    0.52500000
 H                   10.30400000   -1.33700000    0.45800000
 H                    9.29900000   -0.20000000    1.68000000

 1 2 2.0 3 1.0 26 1.0
 2
 3 10 1.0 4 1.0
 4 6 1.0 5 1.0 7 1.0
 5
 6
 7 9 1.0 8 1.0 22 1.0
 8
 9
 10 12 1.0 11 1.0 13 1.0
 11
 12
 13 16 1.0 15 1.0 14 1.0
 14
 15
 16 18 1.0 17 1.0 19 1.0
 17
 18
 19 60 1.0 21 1.0 20 1.0
 20
 21
 22 24 1.0 25 1.0 23 1.0
 23
 24
 25
 26 29 1.0 27 1.0 28 1.0
 27
 28
 29 30 1.0 31 1.0 32 1.0
 30
 31
 32 35 1.0 33 1.0 34 1.0
 33
 34
 35 36 1.0 37 1.0 38 1.0
 36
 37
 38 41 1.0 39 1.0 40 1.0
 39
 40
 41 42 1.0 43 1.0 44 1.0
 42
 43
 44 47 1.0 45 1.0 46 1.0
 45
 46
 47 48 1.0 49 1.0 50 1.0
 48
 49
 50 53 1.0 52 1.0 51 1.0
 51
 52
 53 54 1.0 55 1.0 56 1.0
 54
 55
 56 57 1.0 59 1.0 58 1.0
 57
 58
 59
 60 61 1.0 68 1.0
 61 62 1.0 63 1.0 64 1.0
 62
 63
 64 66 1.0 67 1.0 65 1.0
 65
 66
 67 105 1.0 104 1.0 106 1.0
 68 69 2.0 70 1.0
 69
 70 71 1.0 72 1.0 73 1.0
 71
 72
 73 74 1.0 76 1.0 75 1.0
 74
 75
 76 79 1.0 78 1.0 77 1.0
 77
 78
 79 81 1.0 80 1.0 82 1.0
 80
 81
 82 85 1.0 84 1.0 83 1.0
 83
 84
 85 87 1.0 86 1.0 88 1.0
 86
 87
 88 91 1.0 90 1.0 89 1.0
 89
 90
 91 93 1.0 92 1.0 94 1.0
 92
 93
 94 97 1.0 96 1.0 95 1.0
 95
 96
 97 99 1.0 98 1.0 100 1.0
 98
 99
 100 102 1.0 103 1.0 101 1.0
 101
 102
 103
 104
 105
 106


