%nprocshared=48
%mem=40GB 
%chk=go.chk
#p b3lyp/6-31g(d)

GO

0 1
 C                      7.28100000   -4.96600000   -0.38600000
 C                      8.02600000   -3.75300000   -0.36200000
 C                      7.30000000   -2.50700000   -0.31400000
 C                      7.95000000   -1.25800000   -0.32500000
 C                      7.28600000   -0.01900000   -0.27300000
 C                      8.00500000    1.21100000   -0.28400000
 C                      7.32600000    2.46100000   -0.20300000
 C                      8.00600000    3.74200000   -0.18400000
 C                      7.22200000    4.90000000   -0.19500000
 C                      5.12200000   -6.15500000   -0.36400000
 C                      5.86200000   -4.95600000   -0.34600000
 C                      5.16500000   -3.73700000   -0.28400000
 C                      5.87700000   -2.50000000   -0.27100000
 C                      5.18200000   -1.24700000   -0.22300000
 C                      5.88500000   -0.01400000   -0.21700000
 C                      5.18000000    1.22000000   -0.17800000
 C                      5.88900000    2.44300000   -0.17500000
 C                      5.15000000    3.65400000   -0.15200000
 C                      5.83600000    4.86700000   -0.17500000
 C                      5.14500000    6.07000000   -0.16600000
 C                      3.00300000   -7.44700000   -0.30600000
 C                      3.71300000   -6.20500000   -0.29700000
 C                      3.01100000   -4.97900000   -0.25400000
 C                      3.75100000   -3.76900000   -0.24700000
 C                      3.02000000   -2.48900000   -0.20100000
 C                      3.78300000   -1.21200000   -0.19000000
 C                      3.08700000    0.00000000   -0.15400000
 C                      3.76000000    1.22600000   -0.14900000
 C                      3.02200000    2.44800000   -0.12200000
 C                      3.72900000    3.66600000   -0.12400000
 C                      3.02200000    4.90500000   -0.10300000
 C                      3.74400000    6.12800000   -0.11200000
 C                      3.06200000    7.37700000   -0.10800000
 C                      0.82100000   -8.60500000   -0.21700000
 C                      1.57300000   -7.41800000   -0.27300000
 C                      0.86500000   -6.18300000   -0.23800000
 C                      1.58200000   -4.96200000   -0.22600000
 C                      0.86000000   -3.73800000   -0.18100000
 C                      1.53700000   -2.50600000   -0.17100000
 C                      0.84300000   -1.29000000   -0.13100000
 C                      1.60000000   -0.01300000   -0.12600000
 C                      0.85900000    1.26800000   -0.09500000
 C                      1.59100000    2.47000000   -0.09600000
 C                      0.88600000    3.69900000   -0.07400000
 C                      1.60400000    4.91800000   -0.08200000
 C                      0.90600000    6.15000000   -0.07000000
 C                      1.63600000    7.37000000   -0.09300000
 C                      0.91600000    8.56800000   -0.07100000
 C                     -0.55400000   -8.59700000   -0.17400000
 C                     -1.28900000   -7.40300000   -0.18500000
 C                     -0.56900000   -6.17700000   -0.19400000
 C                     -1.27800000   -4.95200000   -0.13700000
 C                     -0.55200000   -3.73000000   -0.13700000
 C                     -1.22700000   -2.48700000   -0.08500000
 C                     -0.55000000   -1.25400000   -0.08900000
 C                     -1.25700000   -0.00300000   -0.04700000
 C                     -0.55000000    1.24200000   -0.05800000
 C                     -1.25100000    2.47200000   -0.02600000
 C                     -0.53700000    3.70500000   -0.04000000
 C                     -1.24200000    4.93900000   -0.01100000
 C                     -0.52400000    6.16700000   -0.02400000
 C                     -1.22600000    7.41300000    0.00900000
 C                     -0.46300000    8.61100000   -0.04100000
 C                     -2.71200000   -7.42200000   -0.12800000
 C                     -3.41400000   -6.18300000   -0.05400000
 C                     -2.70300000   -4.96300000   -0.06500000
 C                     -3.42900000   -3.75200000   -0.00100000
 C                     -2.69100000   -2.47600000   -0.02100000
 C                     -3.41500000   -1.19100000    0.04400000
 C                     -2.68100000    0.01500000    0.01700000
 C                     -3.37900000    1.24000000    0.06700000
 C                     -2.66400000    2.46900000    0.03300000
 C                     -3.36600000    3.69300000    0.07400000
 C                     -2.66200000    4.94100000    0.04000000
 C                     -3.36300000    6.18700000    0.08500000
 C                     -2.65300000    7.42300000    0.06700000
 C                     -4.82400000   -6.13300000    0.00500000
 C                     -5.54600000   -4.92800000    0.09600000
 C                     -4.83300000   -3.71200000    0.09200000
 C                     -5.52100000   -2.46800000    0.18400000
 C                     -4.81500000   -1.21900000    0.14700000
 C                     -5.50900000    0.01000000    0.22400000
 C                     -4.79800000    1.23500000    0.17000000
 C                     -5.50200000    2.45500000    0.23200000
 C                     -4.77500000    3.66300000    0.16900000
 C                     -5.50600000    4.95100000    0.24000000
 C                     -4.71100000    6.19300000    0.19200000
 C                     -6.96200000   -4.92000000    0.20400000
 C                     -7.66800000   -3.70100000    0.32100000
 C                     -6.93300000   -2.46800000    0.31300000
 C                     -7.58100000   -1.22700000    0.40900000
 C                     -6.90900000    0.01000000    0.38100000
 C                     -7.62600000    1.23800000    0.52000000
 C                     -6.91900000    2.46900000    0.39600000
 C                     -7.63100000    3.78700000    0.48700000
 C                     -6.99500000    4.95100000    0.40900000
 H                      8.99100000   -1.23500000   -0.38000000
 H                      7.70000000    5.87400000   -0.18400000
 H                      5.65200000   -7.06200000   -0.44800000
 H                      1.39100000    9.52800000   -0.06800000
 H                     -1.01500000   -9.56700000   -0.10300000
 H                     -5.36600000   -7.04400000   -0.02200000
 H                     -8.63600000   -1.21100000    0.48000000
 C                      9.55600000   -3.87300000   -0.37500000
 O                     10.09000000   -4.95200000   -0.58800000
 O                     10.38000000   -2.84000000   -0.11500000
 C                     -3.42800000    8.71400000    0.13700000
 O                     -3.18800000    9.53300000    1.01200000
 C                      3.83900000    8.67900000   -0.11300000
 O                      3.47600000    9.62600000   -0.79400000
 C                      9.49600000    4.02700000   -0.10800000
 O                      9.91500000    5.13500000   -0.41700000
 C                      3.74300000   -8.77100000   -0.34000000
 O                      3.31600000   -9.70900000   -0.99600000
 C                     -3.45600000   -8.73800000   -0.12900000
 O                     -3.15600000   -9.71900000   -1.01100000
 C                     -9.17700000   -3.76800000    0.48500000
 O                     -9.92600000   -4.73300000   -0.09800000
 O                     -4.43900000    8.95600000   -0.72800000
 O                      4.94400000    8.83000000    0.65000000
 O                     10.38300000    3.16100000    0.42100000
 O                      4.88100000   -8.95700000    0.36400000
 O                     -4.36800000   -8.93700000    0.65700000
 O                     -9.76500000   -2.96200000    1.18600000
 H                      5.44500000    9.65800000    0.66200000
 H                     -9.59900000   -5.33800000   -0.77600000
 H                     -2.52800000   -9.59200000   -1.73500000
 H                      5.35600000   -9.80000000    0.35000000
 H                     11.34400000   -2.93800000   -0.11600000
 H                     11.32300000    3.37800000    0.50300000
 O                      9.34700000    1.22000000   -0.41600000
 H                      9.96800000    0.49300000   -0.52000000
 O                      7.97700000   -6.13200000   -0.42500000
 H                      7.65500000   -7.03900000   -0.42400000
 O                     -7.68000000   -6.07000000    0.26100000
 H                     -7.36700000   -6.97900000    0.22300000
 O                     -7.73000000    6.08800000    0.48800000
 H                     -7.37200000    6.98100000    0.43400000
 C                     -9.10500000    1.20500000    0.95900000
 H                     -9.63500000    2.16100000    0.92900000
 H                     -9.73500000    0.55500000    0.32100000
 C                     -9.06500000    0.80900000    2.45100000
 H                     -8.59300000   -0.18800000    2.57500000
 H                     -8.41000000    1.55500000    2.95900000
 C                    -10.39900000    0.79200000    3.20400000
 H                    -10.88600000    1.78800000    3.13500000
 H                    -11.07400000    0.02100000    2.77400000
 C                    -10.07700000    0.47300000    4.67500000
 H                     -9.56500000   -0.51500000    4.72200000
 H                     -9.37500000    1.25000000    5.05500000
 C                    -11.28500000    0.43500000    5.61400000
 H                    -11.99100000   -0.35800000    5.28600000
 H                    -11.80500000    1.41700000    5.59900000
 C                    -10.77700000    0.13700000    7.03500000
 H                    -10.23600000   -0.83500000    7.02600000
 H                    -10.06300000    0.93600000    7.33600000
 C                    -11.89400000    0.06300000    8.07900000
 H                    -12.60600000   -0.74400000    7.80000000
 H                    -12.43900000    1.03100000    8.11400000
 C                    -11.28400000   -0.23900000    9.45600000
 H                    -10.72600000   -1.20100000    9.40300000
 H                    -10.57000000    0.57100000    9.72500000
 C                    -12.35100000   -0.34800000   10.54900000
 H                    -13.06300000   -1.16100000   10.28500000
 H                    -12.90900000    0.61100000   10.61800000
 C                    -11.69900000   -0.66300000   11.90300000
 H                    -11.13600000   -1.61900000   11.82500000
 H                    -10.98600000    0.15000000   12.16600000
 C                    -12.75100000   -0.78900000   13.01000000
 H                    -13.46300000   -1.60300000   12.74600000
 H                    -13.31300000    0.16700000   13.09200000
 C                    -12.09400000   -1.11100000   14.35800000
 H                    -11.53200000   -2.06800000   14.27600000
 H                    -11.38100000   -0.29900000   14.62400000
 C                    -13.15000000   -1.23800000   15.46200000
 H                    -13.86300000   -2.04900000   15.19500000
 H                    -13.71000000   -0.28100000   15.54300000
 C                    -12.50400000   -1.56000000   16.81500000
 H                    -11.94600000   -2.51900000   16.73800000
 H                    -11.79000000   -0.75100000   17.08400000
 C                    -13.56900000   -1.67900000   17.91200000
 H                    -14.28400000   -2.48800000   17.64300000
 H                    -14.12600000   -0.71900000   17.98600000
 C                    -12.93300000   -1.99900000   19.27000000
 H                    -12.38000000   -2.96100000   19.20600000
 H                    -12.21900000   -1.19300000   19.54700000
 C                    -13.99600000   -2.11200000   20.35900000
 H                    -14.71200000   -2.92500000   20.11700000
 H                    -13.51000000   -2.34300000   21.33100000
 H                    -14.55100000   -1.15500000   20.45800000
 H                     -5.27700000    7.09700000    0.27400000
 H                     -4.96000000    9.77000000   -0.68400000
 O                     -1.03100000    9.83600000   -0.08100000
 H                     -0.53200000   10.66500000   -0.12400000
 H                      5.74900000    6.95400000   -0.21600000
 H                     -8.69600000    3.87800000    0.60000000
 H                      1.25300000   -9.58700000   -0.17800000

 1 133 1.0 11 1.5 2 1.5
 2 104 1.0 3 1.5
 3 13 1.5 4 1.5
 4 97 1.0 5 1.5
 5 15 1.5 6 1.5
 6 131 1.0 7 1.5
 7 8 1.0 17 1.5
 8 111 1.0 9 1.5
 9 98 1.0 19 1.5
 10 99 1.0 22 1.5 11 1.5
 11 12 1.5
 12 24 1.5 13 1.5
 13 14 1.5
 14 26 1.5 15 1.5
 15 16 1.5
 16 17 1.5 28 1.5
 17 18 1.5
 18 19 1.5 30 1.5
 19 20 1.5
 20 195 1.0 32 1.5
 21 113 1.0 22 1.5 35 1.5
 22 23 1.5
 23 37 1.5 24 1.5
 24 25 1.0
 25 39 1.0 26 1.0
 26 27 1.5
 27 28 1.5 41 1.0
 28 29 1.5
 29 30 1.5 43 1.5
 30 31 1.5
 31 45 1.5 32 1.5
 32 33 1.5
 33 47 1.5 109 1.0
 34 49 2.0 35 1.5 197 1.0
 35 36 1.5
 36 51 1.5 37 1.5
 37 38 1.5
 38 53 1.5 39 1.5
 39 40 1.5
 40 41 1.0 55 1.5
 41 42 1.0
 42 43 1.5 57 1.5
 43 44 1.5
 44 45 1.5 59 1.5
 45 46 1.5
 46 47 1.5 61 1.5
 47 48 1.5
 48 63 2.0 100 1.0
 49 101 1.0 50 1.5
 50 64 1.5 51 1.5
 51 52 1.5
 52 66 1.5 53 1.5
 53 54 1.5
 54 68 1.0 55 1.5
 55 56 1.5
 56 57 1.5 70 1.5
 57 58 1.5
 58 59 1.5 72 1.5
 59 60 1.5
 60 61 1.5 74 1.5
 61 62 1.5
 62 63 1.5 76 1.5
 63 193 1.0
 64 115 1.0 65 1.5
 65 77 1.5 66 1.5
 66 67 1.5
 67 79 1.5 68 1.0
 68 69 1.0
 69 70 1.5 81 1.5
 70 71 1.5
 71 72 1.5 83 1.5
 72 73 1.5
 73 74 1.5 85 1.5
 74 75 1.5
 75 76 1.5 87 2.0
 76 107 1.0
 77 102 1.0 78 1.5
 78 88 1.5 79 1.5
 79 80 1.5
 80 81 1.5 90 1.5
 81 82 1.5
 82 83 1.5 92 1.5
 83 84 1.5
 84 85 1.5 94 1.5
 85 86 1.0
 86 87 1.0 96 1.0
 87 191 1.0
 88 135 1.0 89 1.5
 89 117 1.0 90 1.5
 90 91 1.5
 91 103 1.0 92 1.5
 92 93 1.5
 93 94 1.5 139 1.0
 94 95 1.0
 95 96 2.0 196 1.0
 96 137 1.0
 97
 98
 99
 100
 101
 102
 103
 104 105 2.0 106 1.0
 105
 106 129 1.0
 107 108 2.0 119 1.0
 108
 109 110 2.0 120 1.0
 110
 111 121 1.0 112 2.0
 112
 113 122 1.0 114 2.0
 114
 115 116 1.0 123 2.0
 116 127 1.0
 117 118 1.0 124 2.0
 118 126 1.0
 119 192 1.0
 120 125 1.0
 121 130 1.0
 122 128 1.0
 123
 124
 125
 126
 127
 128
 129
 130
 131 132 1.0
 132
 133 134 1.0
 134
 135 136 1.0
 136
 137 138 1.0
 138
 139 141 1.0 140 1.0 142 1.0
 140
 141
 142 143 1.0 144 1.0 145 1.0
 143
 144
 145 147 1.0 146 1.0 148 1.0
 146
 147
 148 149 1.0 150 1.0 151 1.0
 149
 150
 151 152 1.0 153 1.0 154 1.0
 152
 153
 154 155 1.0 156 1.0 157 1.0
 155
 156
 157 158 1.0 159 1.0 160 1.0
 158
 159
 160 161 1.0 162 1.0 163 1.0
 161
 162
 163 164 1.0 165 1.0 166 1.0
 164
 165
 166 167 1.0 168 1.0 169 1.0
 167
 168
 169 170 1.0 171 1.0 172 1.0
 170
 171
 172 173 1.0 174 1.0 175 1.0
 173
 174
 175 176 1.0 177 1.0 178 1.0
 176
 177
 178 179 1.0 180 1.0 181 1.0
 179
 180
 181 182 1.0 183 1.0 184 1.0
 182
 183
 184 185 1.0 186 1.0 187 1.0
 185
 186
 187 188 1.0 190 1.0 189 1.0
 188
 189
 190
 191
 192
 193 194 1.0
 194
 195
 196
 197


