%nprocshared=48
%mem=80GB
%chk=slesn1.chk
#p opt b3lyp/6-31g(d) scrf=(solvent=water,pcm) empiricaldispersion=gd3

Required

-1 1
 C			                       12.00400000   -0.66700000    0.00000000
 H			                       12.01500000   -1.31600000    0.88500000
 H			                       12.93200000   -0.08400000    0.00000000
 H			                       12.01500000   -1.31600000   -0.88500000
 C			                       10.76900000    0.23900000    0.00000000
 H			                       10.79600000    0.89900000    0.87900000
 H			                       10.79600000    0.89900000   -0.87900000
 C			                        9.45000000   -0.54400000    0.00000000
 H			                        9.42200000   -1.20500000    0.87900000
 H			                        9.42200000   -1.20500000   -0.87900000
 C			                        8.20700000    0.35300000    0.00000000
 H			                        8.23700000    1.01400000   -0.87900000
 H			                        8.23700000    1.01400000    0.87900000
 C			                        6.89000000   -0.43000000    0.00000000
 H			                        6.86000000   -1.09100000    0.87900000
 H			                        6.86000000   -1.09100000   -0.87900000
 C			                        5.64700000    0.46800000    0.00000000
 H			                        5.67700000    1.12900000   -0.87900000
 H			                        5.67700000    1.12900000    0.87900000
 C			                        4.32900000   -0.31400000    0.00000000
 H			                        4.29900000   -0.97500000    0.87900000
 H			                        4.29900000   -0.97500000   -0.87900000
 C			                        3.08800000    0.58600000    0.00000000
 H			                        3.11800000    1.24600000   -0.87900000
 H			                        3.11800000    1.24600000    0.87900000
 C			                        1.76900000   -0.19600000    0.00000000
 H			                        1.73700000   -0.85600000    0.87900000
 H			                        1.73700000   -0.85600000   -0.87900000
 C			                        0.53100000    0.70800000    0.00000000
 H			                        0.56300000    1.36800000   -0.88000000
 H			                        0.56300000    1.36800000    0.88000000
 C			                       -0.78600000   -0.07700000    0.00000000
 H			                       -0.83300000   -0.73000000    0.88200000
 H			                       -0.83300000   -0.73000000   -0.88200000
 C			                       -2.00700000    0.83100000    0.00000000
 H			                       -2.00000000    1.48700000   -0.88800000
 H			                       -2.00000000    1.48700000    0.88800000
 O			                       -3.17700000    0.02200000    0.00000000
 C			                       -4.37300000    0.77900000    0.00000000
 H			                       -4.43400000    1.42800000   -0.88900000
 H			                       -4.43400000    1.42800000    0.88900000
 C			                       -5.53200000   -0.20600000    0.00000000
 H			                       -5.48900000   -0.84300000    0.89100000
 H			                       -5.48900000   -0.84300000   -0.89100000
 O			                       -6.73400000    0.57400000    0.00000000
 S			                       -8.15600000   -0.31900000    0.00000000
 O			                       -8.10700000   -1.12500000   -1.24400000
 O			                       -8.10700000   -1.12500000    1.24400000
 O			                       -9.16000000    0.76600000    0.00000000

 1 5 1.0 2 1.0 3 1.0 4 1.0
 2
 3
 4
 5 6 1.0 7 1.0 8 1.0
 6
 7
 8 9 1.0 10 1.0 11 1.0
 9
 10
 11 12 1.0 13 1.0 14 1.0
 12
 13
 14 17 1.0 15 1.0 16 1.0
 15
 16
 17 18 1.0 19 1.0 20 1.0
 18
 19
 20 21 1.0 22 1.0 23 1.0
 21
 22
 23 24 1.0 25 1.0 26 1.0
 24
 25
 26 27 1.0 28 1.0 29 1.0
 27
 28
 29 32 1.0 30 1.0 31 1.0
 30
 31
 32 33 1.0 34 1.0 35 1.0
 33
 34
 35 36 1.0 37 1.0 38 1.0
 36
 37
 38 39 1.0
 39 40 1.0 41 1.0 42 1.0
 40
 41
 42 45 1.0 43 1.0 44 1.0
 43
 44
 45 46 1.0
 46 47 2.0 48 2.0 49 2.0
 47
 48
 49


