%nprocshared=24
%mem=40GB
%chk=resin1.chk
#p opt b3lyp/6-31g(d) scrf=(solvent=water,pcm) empiricaldispersion=gd3

Title Card Required

0 1
 C                -26.67762420   -6.20934153   -3.30050238
 C                -25.28246420   -6.20934153   -3.30050238
 C                -24.58492620   -5.00159053   -3.30050238
 C                -25.28258020   -3.79308153   -3.30170138
 C                -26.67740520   -3.79315953   -3.30218038
 C                -27.37500620   -5.00136553   -3.30118438
 H                -24.73295620   -7.16185453   -3.29918738
 H                -28.47461020   -5.00118253   -3.30136438
 C                -24.51207613   -2.45969356   -3.30178400
 C                -23.04492646   -5.00147850   -3.29961452
 C                -22.97207624   -2.46027568   -3.30178397
 C                -22.20258042   -3.79424576   -3.30170131
 C                -27.44774338   -2.45967638   -3.30351487
 C                -25.28157194   -1.12572348   -3.30186666
 C                -26.67808161   -1.12580271   -3.30484975
 C                -22.20157216   -1.12688771   -3.30186659
 H                -21.56919536   -1.12718023   -4.16500012
 C                -24.51136202    0.20783057   -3.29866094
 C                -22.97106798    0.20708237   -3.30194925
 H                -28.08012021   -2.46070053   -4.16664782
 H                -28.08012021   -2.45897296   -2.44038159
 H                -26.99250169   -0.58013923   -4.16988812
 H                -26.99618942   -0.57628379   -2.44360856
 H                -25.27924064   -1.12439215   -4.37186329
 H                -24.82920047    0.75869982   -4.15913859
 H                -24.82551814    0.75242324   -2.43285222
 H                -22.65279796    0.75572271   -2.44020800
 H                -22.65648435    0.75348926   -4.16645873
 H                -21.56919536   -1.12707327   -2.43873303
 H                -22.55003788   -5.95015124   -3.29730755
 H                -21.13357022   -3.84023875   -3.30306156
 C                -27.44755956   -7.54305782   -3.29987216
 H                -27.60747481   -7.86304889   -4.30830303
 H                -26.87862172   -8.28308170   -2.77682877
 C                -28.80618137   -7.35114452   -2.60064683
 H                -29.45042369   -6.76963378   -3.22650392
 H                -28.65984740   -6.84373321   -1.67004480
 C                -29.44818684   -8.72646487   -2.34002660
 H                -29.52350035   -9.26527764   -3.26138900
 C                -30.85425525   -8.53173616   -1.74282282
 H                -31.45945790   -7.97685270   -2.42892346
 H                -31.30160976   -9.48728552   -1.56477969
 H                -30.77864129   -7.99577177   -0.81982515
 C                -28.57572843   -9.52102584   -1.35053724
 H                -27.73315642   -9.93074367   -1.86735801
 H                -28.23500754   -8.86978751   -0.57291400
 H                -29.15283300  -10.31461123   -0.92383764

 1 2 1.5 6 1.5 32 1.0
 2 3 1.5 7 1.0
 3 4 1.5 10 1.0
 4 5 1.5 9 1.0
 5 6 1.5 13 1.0
 6 8 1.0
 7
 8
 9 11 2.0 14 1.0
 10 12 2.0 30 1.0
 11 12 1.0 16 1.0
 12 31 1.0
 13 15 1.0 20 1.0 21 1.0
 14 15 1.0 18 1.0 24 1.0
 15 22 1.0 23 1.0
 16 17 1.0 19 1.0 29 1.0
 17
 18 19 1.0 25 1.0 26 1.0
 19 27 1.0 28 1.0
 20
 21
 22
 23
 24
 25
 26
 27
 28
 29
 30
 31
 32 33 1.0 34 1.0 35 1.0
 33
 34
 35 36 1.0 37 1.0 38 1.0
 36
 37
 38 39 1.0 40 1.0 44 1.0
 39
 40 41 1.0 42 1.0 43 1.0
 41
 42
 43
 44 45 1.0 46 1.0 47 1.0
 45
 46
 47

